Version 4
SHEET 1 1872 1028
WIRE 1408 16 1408 -16
WIRE 1408 128 1408 96
WIRE 1408 128 1312 128
WIRE 1456 128 1408 128
WIRE 1568 128 1520 128
WIRE 592 160 592 16
WIRE 1312 160 1312 128
WIRE -544 224 -544 192
WIRE -432 224 -432 192
WIRE -320 224 -320 192
WIRE -208 224 -208 192
WIRE 64 224 32 224
WIRE 160 224 128 224
WIRE 288 224 240 224
WIRE 384 224 288 224
WIRE 480 224 384 224
WIRE 544 224 480 224
WIRE 1408 224 1408 128
WIRE -704 240 -704 208
WIRE 592 272 592 256
WIRE 688 272 592 272
WIRE 720 272 688 272
WIRE 832 272 800 272
WIRE 864 272 832 272
WIRE 992 272 944 272
WIRE 1312 272 1312 240
WIRE 1312 272 1296 272
WIRE 1344 272 1312 272
WIRE 1568 272 1568 128
WIRE 480 288 480 224
WIRE 288 304 288 224
WIRE 384 304 384 224
WIRE 592 304 592 272
WIRE 688 320 688 272
WIRE 832 320 832 272
WIRE 992 320 992 272
WIRE -544 336 -544 304
WIRE -432 336 -432 304
WIRE -320 336 -320 304
WIRE -208 336 -208 304
WIRE -704 352 -704 320
WIRE 1408 352 1408 320
WIRE 288 416 288 368
WIRE 384 416 384 368
WIRE 384 416 288 416
WIRE 480 416 480 368
WIRE 480 416 384 416
WIRE 592 416 592 384
WIRE 592 416 480 416
WIRE 688 416 688 384
WIRE 688 416 592 416
WIRE 832 416 832 384
WIRE 832 416 688 416
WIRE 992 432 992 400
WIRE 480 448 480 416
WIRE 1408 480 1408 432
WIRE 1568 480 1568 352
FLAG 480 448 0
FLAG 592 16 7V
FLAG -432 336 0
FLAG -320 336 0
FLAG -208 336 0
FLAG -432 192 carrier
FLAG -320 192 modulator
FLAG -208 192 signal
FLAG -544 336 0
FLAG -544 192 7V
FLAG -704 352 0
FLAG -704 208 test
FLAG 1408 480 0
FLAG 1568 480 0
FLAG 1408 -16 7V
FLAG 992 432 0
FLAG 32 224 0
SYMBOL njf 544 160 R0
SYMATTR InstName J1
SYMATTR Value 2N3819
SYMBOL res 464 272 R0
SYMATTR InstName R1
SYMATTR Value 470k
SYMBOL cap 128 208 R90
WINDOW 0 0 32 VBottom 2
WINDOW 3 32 32 VTop 2
SYMATTR InstName C1
SYMATTR Value 10n
SYMBOL res 576 288 R0
SYMATTR InstName R2
SYMATTR Value 2.2k
SYMBOL voltage -432 208 R0
WINDOW 3 -1 164 VRight 2
WINDOW 123 0 0 Left 0
WINDOW 39 0 0 Left 0
SYMATTR Value SINE(0 1 200k)
SYMATTR InstName V1
SYMBOL voltage -320 208 R0
WINDOW 3 -2 169 VRight 2
WINDOW 123 0 0 Left 0
WINDOW 39 0 0 Left 0
SYMATTR Value SINE(1 0.7 5k)
SYMATTR InstName V2
SYMBOL bv -208 208 R0
WINDOW 3 1 169 VRight 2
SYMATTR Value V=V(carrier)*V(modulator)*0.001
SYMATTR InstName B1
SYMBOL Misc\\battery -544 208 R0
SYMATTR InstName V3
SYMATTR Value 7V
SYMBOL ind 704 288 R270
WINDOW 0 32 56 VTop 2
WINDOW 3 5 56 VBottom 2
SYMATTR InstName L1
SYMATTR Value 1µ
SYMBOL cap 848 384 R180
WINDOW 0 24 56 Left 2
WINDOW 3 24 8 Left 2
SYMATTR InstName C2
SYMATTR Value 1n
SYMBOL ind 848 288 R270
WINDOW 0 32 56 VTop 2
WINDOW 3 5 56 VBottom 2
SYMATTR InstName L2
SYMATTR Value 150µ
SYMBOL voltage -704 224 R0
WINDOW 3 -1 164 VRight 2
WINDOW 123 -2 165 VRight 2
WINDOW 39 0 0 Left 0
SYMATTR Value ""
SYMATTR Value2 AC 1 0
SYMATTR InstName V4
SYMBOL cap 672 320 R0
SYMATTR InstName C3
SYMATTR Value 1n
SYMBOL diode 368 304 R0
WINDOW 3 -11 136 Left 2
SYMATTR Value 1N4148
SYMATTR InstName D1
SYMBOL diode 304 368 R180
WINDOW 0 24 64 Left 2
WINDOW 3 -5 -73 Left 2
SYMATTR InstName D2
SYMATTR Value 1N4148
SYMBOL res 256 208 R90
WINDOW 0 0 56 VBottom 2
WINDOW 3 32 56 VTop 2
SYMATTR InstName R4
SYMATTR Value 1k
SYMBOL npn 1344 224 R0
SYMATTR InstName Q1
SYMATTR Value BC547C
SYMBOL res 1392 0 R0
SYMATTR InstName R3
SYMATTR Value 1k
SYMBOL res 1296 144 R0
SYMATTR InstName R5
SYMATTR Value 100k
SYMBOL res 1392 336 R0
SYMATTR InstName R6
SYMATTR Value 10
SYMBOL res 1552 256 R0
SYMATTR InstName R7
SYMATTR Value 100k
SYMBOL cap 1456 144 R270
WINDOW 0 32 32 VTop 2
WINDOW 3 0 32 VBottom 2
SYMATTR InstName C4
SYMATTR Value 10n
SYMBOL cap 1296 256 R90
WINDOW 0 0 32 VBottom 2
WINDOW 3 32 32 VTop 2
SYMATTR InstName C5
SYMATTR Value 1n
SYMBOL voltage 992 304 R0
WINDOW 3 -1 164 VRight 2
WINDOW 123 -2 165 VRight 2
WINDOW 39 0 0 Left 0
SYMATTR Value ""
SYMATTR Value2 AC 1 0
SYMATTR InstName V5
TEXT -488 712 Left 2 !;.tran 1m
TEXT -496 744 Left 2 !.ac dec 100 1 10e6
TEXT 240 592 Left 2 ;Input signal\nVpp = 1.69mV\n \n\nIN stage out:\nVpp = 1.91mV\n \nLPF out:\nVmax = 718.11mV\nVmin = 716.45mV\nVpp = 1,66mV\n \n\nPREAMP out:\n \nRload = 100k:\nVpp (R10 + POT470%0) = 50.79mV\nVpp (R10 + POT470%100) = 2.42mV
